REMARK  Name = *****
REMARK  6 active torsions:
REMARK  status: ('A' for Active; 'I' for Inactive)
REMARK    1  A    between atoms: C_6  and  C_27
REMARK    2  A    between atoms: C_18  and  C_22
REMARK    3  A    between atoms: C_19  and  O_23
REMARK    4  A    between atoms: C_21  and  O_25
REMARK    5  A    between atoms: O_25  and  C_26
REMARK    6  A    between atoms: C_27  and  C_28
REMARK                            x       y       z     vdW  Elec       q    Type
REMARK                         _______ _______ _______ _____ _____    ______ ____
ROOT
ATOM      1  O   LIG A   1      14.539 -13.294 -10.086  0.00  0.00    -0.276 OA
ATOM      2  N   LIG A   1      12.365 -18.071 -14.247  0.00  0.00    -0.298 NA
ATOM      3  N   LIG A   1      13.677 -14.588 -11.823  0.00  0.00    -0.264 N 
ATOM      4  C   LIG A   1      12.267 -16.038 -13.161  0.00  0.00    +0.034 C 
ATOM      5  C   LIG A   1      12.021 -16.666 -14.541  0.00  0.00    +0.075 C 
ATOM      6  C   LIG A   1      12.866 -16.130 -15.719  0.00  0.00    -0.013 C 
ATOM      7  C   LIG A   1      13.756 -15.688 -12.837  0.00  0.00    +0.094 C 
ATOM      8  C   LIG A   1      11.745 -17.133 -12.188  0.00  0.00    +0.030 C 
ATOM      9  C   LIG A   1      14.351 -16.030 -15.308  0.00  0.00    +0.010 C 
ATOM     10  C   LIG A   1      14.561 -15.189 -14.054  0.00  0.00    +0.024 C 
ATOM     11  C   LIG A   1      11.652 -18.408 -13.021  0.00  0.00    +0.086 C 
ATOM     12  C   LIG A   1      12.709 -17.093 -16.932  0.00  0.00    +0.009 C 
ATOM     13  C   LIG A   1      11.601 -14.726 -12.827  0.00  0.00    -0.013 A 
ATOM     14  C   LIG A   1      12.067 -18.965 -15.357  0.00  0.00    +0.085 C 
ATOM     15  C   LIG A   1      12.905 -18.565 -16.570  0.00  0.00    +0.016 C 
ATOM     16  C   LIG A   1      12.423 -13.951 -11.995  0.00  0.00    +0.086 A 
ATOM     17  C   LIG A   1      10.322 -14.301 -13.160  0.00  0.00    +0.010 A 
ATOM     18  C   LIG A   1      14.646 -14.208 -10.905  0.00  0.00    +0.217 C 
ATOM     19  C   LIG A   1      11.971 -12.748 -11.473  0.00  0.00    +0.181 A 
ATOM     20  C   LIG A   1       9.870 -13.083 -12.652  0.00  0.00    +0.050 A 
ATOM     21  C   LIG A   1      10.686 -12.315 -11.813  0.00  0.00    +0.163 A 
ATOM     22  C   LIG A   1      15.915 -15.025 -10.918  0.00  0.00    +0.110 C 
ENDROOT
BRANCH  19  23
ATOM     23  O   LIG A   1      12.738 -11.921 -10.719  0.00  0.00    -0.502 OA
ATOM     24  H   LIG A   1      13.045 -12.397  -9.929  0.00  0.00    +0.292 HD
ENDBRANCH  19  23
BRANCH  21  25
ATOM     25  O   LIG A   1      10.211 -11.127 -11.339  0.00  0.00    -0.491 OA
ATOM     26  C   LIG A   1      10.159 -10.039 -12.259  0.00  0.00    +0.277 C 
ENDBRANCH  21  25
BRANCH   6  27
ATOM     27  C   LIG A   1      12.353 -14.747 -16.177  0.00  0.00    +0.005 C 
ATOM     28  C   LIG A   1      11.007 -14.871 -16.850  0.00  0.00    +0.004 C 
ENDBRANCH   6  27
TORSDOF 3
